[General]
ned-path = .;../queueinglib
network = NETWORK
repeat = 10
sim-time-limit = 1000s
**.vector-recording = false


[Config CONF_PARTE_1]
**.prob = 5.0
**.router.randomGateIndex=(uniform(0, 10.0) <= 5.0 ? 0 : 1)
**.sink1.lifeTime.result-recording-modes =+ mean
**.sink2.lifeTime.result-recording-modes =+ mean
**.sinkgl.lifeTime.result-recording-modes =+ mean

[Config CONF_PARTE_2_P_050]
**.prob = 0.5
**.router.randomGateIndex=(uniform(0, 10.0) <= 0.5 ? 0 : 1)
**.sink1.lifeTime.result-recording-modes =+ mean
**.sink2.lifeTime.result-recording-modes =+ mean
**.sinkgl.lifeTime.result-recording-modes =+ mean
[Config CONF_PARTE_2_P_100]
**.prob = 1.0
**.router.randomGateIndex=(uniform(0, 10.0) <= 1.0 ? 0 : 1)
**.sink1.lifeTime.result-recording-modes =+ mean
**.sink2.lifeTime.result-recording-modes =+ mean
**.sinkgl.lifeTime.result-recording-modes =+ mean
[Config CONF_PARTE_2_P_150]
**.prob = 1.5
**.router.randomGateIndex=(uniform(0, 10.0) <= 1.5 ? 0 : 1)
**.sink1.lifeTime.result-recording-modes =+ mean
**.sink2.lifeTime.result-recording-modes =+ mean
**.sinkgl.lifeTime.result-recording-modes =+ mean
[Config CONF_PARTE_2_P_200]
**.prob = 2.0
**.router.randomGateIndex=(uniform(0, 10.0) <= 2.0 ? 0 : 1)
**.sink1.lifeTime.result-recording-modes =+ mean
**.sink2.lifeTime.result-recording-modes =+ mean
**.sinkgl.lifeTime.result-recording-modes =+ mean
[Config CONF_PARTE_2_P_250]
**.prob = 2.5
**.router.randomGateIndex=(uniform(0, 10.0) <= 2.5 ? 0 : 1)
**.sink1.lifeTime.result-recording-modes =+ mean
**.sink2.lifeTime.result-recording-modes =+ mean
**.sinkgl.lifeTime.result-recording-modes =+ mean
[Config CONF_PARTE_2_P_300]
**.prob = 3.0
**.router.randomGateIndex=(uniform(0, 10.0) <= 3.0 ? 0 : 1)
**.sink1.lifeTime.result-recording-modes =+ mean
**.sink2.lifeTime.result-recording-modes =+ mean
**.sinkgl.lifeTime.result-recording-modes =+ mean
[Config CONF_PARTE_2_P_350]
**.prob = 3.5
**.router.randomGateIndex=(uniform(0, 10.0) <= 3.5 ? 0 : 1)
**.sink1.lifeTime.result-recording-modes =+ mean
**.sink2.lifeTime.result-recording-modes =+ mean
**.sinkgl.lifeTime.result-recording-modes =+ mean
[Config CONF_PARTE_2_P_400]
**.prob = 4.0
**.router.randomGateIndex=(uniform(0, 10.0) <= 4.0 ? 0 : 1)
**.sink1.lifeTime.result-recording-modes =+ mean
**.sink2.lifeTime.result-recording-modes =+ mean
**.sinkgl.lifeTime.result-recording-modes =+ mean
[Config CONF_PARTE_2_P_450]
**.prob = 4.5
**.router.randomGateIndex=(uniform(0, 10.0) <= 4.5 ? 0 : 1)
**.sink1.lifeTime.result-recording-modes =+ mean
**.sink2.lifeTime.result-recording-modes =+ mean
**.sinkgl.lifeTime.result-recording-modes =+ mean
[Config CONF_PARTE_2_P_500]
**.prob = 5.0
**.router.randomGateIndex=(uniform(0, 10.0) <= 5.0 ? 0 : 1)
**.sink1.lifeTime.result-recording-modes =+ mean
**.sink2.lifeTime.result-recording-modes =+ mean
**.sinkgl.lifeTime.result-recording-modes =+ mean

[Config CONF_PARTE_3]
**.prob = 3.125
**.router.randomGateIndex=(uniform(0, 10.0) <= 3.125 ? 0 : 1)
**.sink1.lifeTime.result-recording-modes =+ mean
**.sink2.lifeTime.result-recording-modes =+ mean
**.sinkgl.lifeTime.result-recording-modes =+ mean
