[General]
ned-path = .;../queueinglib
network = NETWORK
repeat = 5
sim-time-limit = 10000s
**.vector-recording = false


[Config NETWORK_P1]
**.fl = 0.7
**.sink.totalServiceTime =+ mean
**.csink.totalServiceTime =+ mean

[Config NETWORK_P2]
**.fl = 0.5
**.sink.totalServiceTime =+ mean
**.csink.totalServiceTime =+ mean